Version 4
SHEET 1 880 792
WIRE -608 -64 -704 -64
WIRE -704 16 -704 -64
WIRE -704 160 -704 96
WIRE -176 160 -272 160
WIRE -112 160 -176 160
WIRE 64 160 48 160
WIRE 144 160 128 160
WIRE 352 160 272 160
WIRE 544 160 512 160
WIRE 560 160 544 160
WIRE -272 176 -272 160
WIRE -272 256 -272 240
WIRE -32 256 -32 224
WIRE 224 256 224 224
WIRE 464 256 464 224
WIRE 256 368 64 368
WIRE 416 368 336 368
WIRE -272 400 -272 336
WIRE -96 416 -96 384
WIRE 64 464 64 368
WIRE 128 464 64 464
WIRE 416 496 416 368
WIRE 416 496 256 496
WIRE 480 496 416 496
WIRE -176 528 -176 160
WIRE -176 528 -224 528
WIRE -96 528 -96 496
WIRE -96 528 -176 528
WIRE 128 528 -96 528
WIRE 416 528 416 496
WIRE -224 560 -224 528
WIRE -96 560 -96 528
WIRE 192 624 192 560
WIRE -224 656 -224 624
WIRE 416 656 416 592
WIRE -96 688 -96 640
FLAG -32 256 0
FLAG 224 256 0
FLAG 464 256 0
FLAG -272 400 0
FLAG 192 624 0
FLAG -704 160 0
FLAG -608 -64 Vcc
FLAG -32 96 Vcc
FLAG 208 96 Vcc
FLAG 432 96 Vcc
FLAG -96 688 0
FLAG 416 656 0
FLAG -224 656 0
FLAG -96 384 Vcc
FLAG 480 496 REF
FLAG 400 224 REF
FLAG 176 224 REF
FLAG 544 160 Vout
SYMBOL filter_stage 208 160 R0
SYMATTR InstName FILTER
SYMBOL peak_detection 432 160 R0
SYMATTR InstName SGNL_DETEC
SYMBOL gain_stage_1 -32 160 R0
SYMATTR InstName GAIN
SYMBOL LM358 208 496 R0
SYMATTR InstName U1
SYMBOL voltage -704 0 R0
WINDOW 123 0 0 Left 0
WINDOW 39 0 0 Left 0
SYMATTR InstName V1
SYMATTR Value 5
SYMBOL voltage -272 240 M0
WINDOW 123 0 0 Left 0
WINDOW 39 0 0 Left 0
SYMATTR InstName AC1
SYMATTR Value SINE(-100m 10m 366)
SYMBOL res 352 352 R90
WINDOW 0 0 56 VBottom 2
WINDOW 3 32 56 VTop 2
SYMATTR InstName R2
SYMATTR Value 4.68k
SYMBOL res -112 400 R0
SYMATTR InstName R1
SYMATTR Value 10k
SYMBOL res -112 544 R0
SYMATTR InstName R3
SYMATTR Value 10k
SYMBOL cap -240 560 R0
SYMATTR InstName C1
SYMATTR Value 100n
SYMBOL cap 400 528 R0
SYMATTR InstName C2
SYMATTR Value 100n
SYMBOL cap 128 144 R90
WINDOW 0 0 32 VBottom 2
WINDOW 3 32 32 VTop 2
SYMATTR InstName C3
SYMATTR Value 1µ
SYMBOL cap -256 240 R180
WINDOW 0 24 56 Left 2
WINDOW 3 24 8 Left 2
SYMATTR InstName C4
SYMATTR Value 1µ
TEXT 128 -152 Right 2 !.ac dec 1000 10 3.3
